12
# CELL(abcABC):  100.00000   100.00000   100.00000    90.00000    90.00000    90.00000  Step:        2200  Bead:       0 positions{angstrom}  cell{atomic_unit}
       O -1.10855e+00  1.03868e+00  7.20472e-01
       H -3.19746e-01  7.04205e-01  1.10938e+00
       H -7.97533e-01  1.84629e+00  4.11151e-01
       O -8.10900e-01 -1.32279e+00 -4.67215e-01
       H -1.10496e-02 -9.91694e-01 -7.68221e-01
       H -1.12649e+00 -6.32087e-01  2.17007e-01
       O  8.01011e-01  7.83784e-01 -1.35713e+00
       H -8.64362e-02  5.53239e-01 -1.25129e+00
       H  1.04018e+00  6.25277e-01 -5.14766e-01
       O  1.13035e+00 -5.63734e-01  1.14966e+00
       H  2.42610e-01 -9.25682e-01  1.09528e+00
       H  1.49758e+00 -7.71971e-01  2.66875e-01
