12
# CELL(abcABC):  100.00000   100.00000   100.00000    90.00000    90.00000    90.00000  Step:        2200  Bead:       0 positions{angstrom}  cell{atomic_unit}
       O  1.46315e+00 -1.07852e+00 -6.64886e-01
       H  1.01451e+00 -5.99811e-01 -2.81070e-03
       H  2.27504e+00 -1.63906e+00 -4.08371e-01
       O  2.99577e-01 -1.50571e-01  1.50727e+00
       H  5.07801e-01  7.03532e-01  1.72420e+00
       H -5.74710e-01 -2.09055e-01  1.08774e+00
       O  2.57667e-01  1.21257e+00 -9.14720e-01
       H  9.92369e-01  1.77436e+00 -9.79547e-01
       H  3.42122e-01  2.58240e-01 -1.23502e+00
       O -2.07806e+00  7.55589e-02  1.16879e-01
       H -2.41682e+00 -7.55585e-01 -2.54190e-01
       H -1.32596e+00  3.86870e-01 -5.03049e-01
