12
# CELL(abcABC):  100.00000   100.00000   100.00000    90.00000    90.00000    90.00000  Step:        2200  Bead:       0 positions{angstrom}  cell{atomic_unit}
       O  1.42633e+00  1.46729e-01  4.42520e-01
       H  5.15880e-01  3.96445e-01  8.75929e-01
       H  1.28861e+00 -8.09292e-01  9.54137e-02
       O -7.57456e-02 -1.18335e-01 -1.66441e+00
       H  5.98897e-01  1.12226e-01 -1.07949e+00
       H -4.87786e-01 -7.12068e-01 -1.06146e+00
       O -4.93377e-01 -1.47665e+00  5.55308e-01
       H -1.10878e+00 -1.08226e+00  9.86361e-01
       H  1.20599e-01 -7.04751e-01  6.00437e-01
       O -8.20573e-01  1.38336e+00  6.41101e-01
       H -1.02690e+00  1.09933e+00 -2.20467e-01
       H -2.77658e-01  2.15182e+00  4.66691e-01
