12
# CELL(abcABC):  100.00000   100.00000   100.00000    90.00000    90.00000    90.00000  Step:        2200  Bead:       0 positions{angstrom}  cell{atomic_unit}
       O -1.46537e+00  3.77850e-01 -5.89026e-01
       H -1.06865e+00  1.32487e+00 -6.64196e-01
       H -1.37297e+00  5.18040e-01  3.46819e-01
       O  1.21880e+00 -2.09754e-02 -1.15381e+00
       H  3.74099e-01 -9.19355e-02 -7.24855e-01
       H  1.42439e+00 -7.89546e-01 -5.84346e-01
       O  4.65585e-01  1.31464e+00  1.23035e+00
       H  1.10194e+00  1.17999e+00  5.43079e-01
       H  6.44580e-01  5.89141e-01  1.84780e+00
       O -1.83822e-01 -1.68385e+00  4.49643e-01
       H -5.51215e-01 -9.28401e-01  7.94801e-01
       H -8.40828e-01 -2.20881e+00  1.00125e-02
