12
# CELL(abcABC):  100.00000   100.00000   100.00000    90.00000    90.00000    90.00000  Step:        2200  Bead:       0 positions{angstrom}  cell{atomic_unit}
       O  8.64488e-02  1.13487e+00  1.68265e+00
       H -2.35820e-01  1.97776e+00  1.87366e+00
       H  5.67728e-01  1.23388e+00  7.76414e-01
       O -8.74737e-01 -1.71748e+00  3.50508e-01
       H -8.17688e-01 -1.89136e+00  1.32948e+00
       H -4.33209e-01 -9.80851e-01  9.00049e-02
       O  1.72272e+00 -5.73400e-02 -1.12409e+00
       H  2.55335e+00 -2.41322e-01 -7.37964e-01
       H  1.09796e+00 -6.65886e-01 -7.52336e-01
       O -9.85338e-01  5.98703e-01 -8.93793e-01
       H -1.48907e+00  3.52536e-01 -1.64615e+00
       H -1.55587e-01  8.00713e-01 -1.15338e+00
