12
# CELL(abcABC):  100.00000   100.00000   100.00000    90.00000    90.00000    90.00000  Step:        2200  Bead:       0 positions{angstrom}  cell{atomic_unit}
       O -1.47147e+00 -1.09784e+00  6.65803e-01
       H -1.43825e+00 -1.76897e+00  1.20432e+00
       H -7.86318e-01 -1.30994e+00  5.17948e-02
       O  1.48014e+00 -9.68548e-01  6.88552e-01
       H  8.89150e-01 -2.65875e-01  7.35151e-01
       H  9.82017e-01 -1.75917e+00  3.09577e-01
       O -3.41838e-02 -9.03209e-02 -2.19965e+00
       H -6.68027e-01  3.08168e-01 -2.86056e+00
       H -6.86640e-02  7.56850e-01 -1.81453e+00
       O  1.58193e-02  2.15529e+00  8.60655e-01
       H  4.74741e-01  2.49958e+00  1.53264e-01
       H  6.49960e-01  1.86823e+00  1.45545e+00
