12
# CELL(abcABC):  100.00000   100.00000   100.00000    90.00000    90.00000    90.00000  Step:        2200  Bead:       0 positions{angstrom}  cell{atomic_unit}
       O -1.58011e-01  1.13908e+00  1.17904e+00
       H -7.30011e-01  1.86225e+00  1.54910e+00
       H  1.08214e-01  1.13554e+00  1.20449e-01
       O -2.02695e+00 -1.87809e-01 -6.83227e-01
       H -1.16036e+00 -2.13258e-01 -1.21453e+00
       H -1.65613e+00 -1.55813e-01  2.13463e-01
       O  1.01965e+00  5.49582e-01 -1.20804e+00
       H  1.45743e+00 -1.95722e-01 -8.86726e-01
       H  7.11869e-01  8.18560e-02 -1.99320e+00
       O  1.12492e+00 -1.47806e+00  7.75350e-01
       H  7.21722e-01 -4.90134e-01  1.06653e+00
       H  5.82915e-01 -1.91805e+00  2.09140e-01
