12
# CELL(abcABC):  100.00000   100.00000   100.00000    90.00000    90.00000    90.00000  Step:        2200  Bead:       0 positions{angstrom}  cell{atomic_unit}
       O -5.29010e-01 -7.10428e-01  1.40240e+00
       H  1.71597e-01  1.12907e-01  1.31991e+00
       H -1.33697e+00 -6.87801e-01  9.55802e-01
       O -7.96689e-01 -1.13459e+00 -1.13086e+00
       H -3.93921e-01 -1.15444e+00 -1.73906e-01
       H -1.71945e-01 -9.26235e-01 -1.87200e+00
       O  1.65890e+00  2.15803e-01  5.33293e-01
       H  1.17934e+00  1.05489e+00  5.28527e-01
       H  1.04876e+00 -4.37191e-01  8.24336e-01
       O -3.24804e-01  1.65718e+00 -8.11610e-01
       H -9.46950e-01  9.32185e-01 -5.25982e-01
       H  2.79062e-01  8.36423e-01 -6.54879e-01
